# This file was generated by ISODISTORT, version 6.12.1
# Harold T. Stokes, Branton J. Campbell, David Tanner, Dorian M. Hatch
# Brigham Young University, Provo, Utah, USA
#
# Space Group: 221 Pm-3m      Oh-1
# Default space-group preferences: monoclinic axes a(b)c, monoclinic cell choice 1, orthorhombic axes abc, origin choice 2, hexagonal axes, SSG standard setting
# Lattice parameters: a=4.2
# Sr 1b (1/2,1/2,1/2)
# Ti 1a (0,0,0)
# O 3d (1/2,0,0)
# Include strain, displacive ALL distortions
# k point: R, k13 (1/2,1/2,1/2)
# IR: R4+, k13t9
# P1      (a,0,0) 140 I4/mcm, basis={(1,1,0),(-1,1,0),(0,0,2)}, origin=(0,0,0), s=2, i=6, k-active= (1/2,1/2,1/2)
# Order parameter values:
#  Pm-3m[1/2,1/2,1/2]R4+(a,0,0) 140 I4/mcm s=2 i=6
#     [O:d:dsp]Eu(a):  0.00000
#  Pm-3m[0,0,0]GM1+(a) 221 Pm-3m s=1 i=1
#     strain(a):  0.00000
#  Pm-3m[0,0,0]GM3+(a,0) 123 P4/mmm s=1 i=3
#     strain(a):  0.00000

data_isodistort-output

_cell_length_a     5.93970
_cell_length_b     5.93970
_cell_length_c     8.40000
_cell_angle_alpha  90.00000
_cell_angle_beta   90.00000
_cell_angle_gamma  90.00000
_cell_volume       296.35200

_symmetry_space_group_name_H-M "I 4/m 2/c 2/m"
_symmetry_Int_Tables_number 140
_space_group.reference_setting '140:-I 4 2c'
_space_group.transform_Pp_abc a,b,c;0,0,0

loop_
_space_group_symop_id
_space_group_symop_operation_xyz
1 x,y,z
2 x,-y,-z+1/2
3 -x,y,-z+1/2
4 -x,-y,z
5 -y,-x,-z+1/2
6 -y,x,z
7 y,-x,z
8 y,x,-z+1/2
9 -x,-y,-z
10 -x,y,z+1/2
11 x,-y,z+1/2
12 x,y,-z
13 y,x,z+1/2
14 y,-x,-z
15 -y,x,-z
16 -y,-x,z+1/2
17 x+1/2,y+1/2,z+1/2
18 x+1/2,-y+1/2,-z
19 -x+1/2,y+1/2,-z
20 -x+1/2,-y+1/2,z+1/2
21 -y+1/2,-x+1/2,-z
22 -y+1/2,x+1/2,z+1/2
23 y+1/2,-x+1/2,z+1/2
24 y+1/2,x+1/2,-z
25 -x+1/2,-y+1/2,-z+1/2
26 -x+1/2,y+1/2,z
27 x+1/2,-y+1/2,z
28 x+1/2,y+1/2,-z+1/2
29 y+1/2,x+1/2,z
30 y+1/2,-x+1/2,-z+1/2
31 -y+1/2,x+1/2,-z+1/2
32 -y+1/2,-x+1/2,z

loop_
_atom_site_label
_atom_site_type_symbol
_atom_site_symmetry_multiplicity
_atom_site_Wyckoff_symbol
_atom_site_fract_x
_atom_site_fract_y
_atom_site_fract_z
_atom_site_occupancy
_atom_site_fract_symmform
Sr_1 Sr   4 b  0.00000  0.50000  0.25000  1.00000 0,0,0   
Ti_1 Ti   4 c  0.00000  0.00000  0.00000  1.00000 0,0,0   
O_1  O    8 h  0.25000  0.75000  0.00000  1.00000 Dx,Dx,0 
O_2  O    4 a  0.00000  0.00000  0.25000  1.00000 0,0,0   

_iso_displacivemode_number    1

loop_
_iso_displacivemode_ID
_iso_displacivemode_label
_iso_displacivemode_value
   1 Pm-3m[1/2,1/2,1/2]R4+(a,0,0)[O:d:dsp]Eu(a)  0.00000

loop_
_iso_displacivemodenorm_ID
_iso_displacivemodenorm_value
   1  0.05952

loop_
_iso_deltacoordinate_ID
_iso_deltacoordinate_label
_iso_deltacoordinate_value
   1 O_1_dx    0.00000

loop_
_iso_coordinate_label
_iso_coordinate_formula
Sr_1_x                  "0"
Sr_1_y                  "1/2"
Sr_1_z                  "1/4"
Ti_1_x                  "0"
Ti_1_y                  "0"
Ti_1_z                  "0"
O_1_x                   "1/4"
O_1_y                   "3/4"
O_1_z                   "0"
O_2_x                   "0"
O_2_y                   "0"
O_2_z                   "1/4"

# matrix conversion: deltacoords(lattice units) = matrix.(modeamplitudes*modenormfactors)
# Square matrix with _iso_displacivemode_number rows and columns

loop_
_iso_displacivemodematrix_row
_iso_displacivemodematrix_col
_iso_displacivemodematrix_value
    1    1    1.00000

_iso_magneticmode_number    0


_iso_rotationalmode_number    0


_iso_occupancymode_number    0

_iso_strainmode_number    2

loop_
_iso_strainmode_ID
_iso_strainmode_label
_iso_strainmode_value
   1 Pm-3m[0,0,0]GM1+(a)strain(a)  0.00000
   2 Pm-3m[0,0,0]GM3+(a,0)strain(a)  0.00000

loop_
_iso_strainmodenorm_ID
_iso_strainmodenorm_value
   1  0.57735
   2  0.81650

loop_
_iso_strain_ID
_iso_strain_label
_iso_strain_value
   1 E_1    0.00000
   2 E_2    0.00000
   3 E_3    0.00000
   4 E_4    0.00000
   5 E_5    0.00000
   6 E_6    0.00000

# matrix conversion: strains(parent) = matrix * modeamplitudes
# Rectangular matrix with 6 rows and _iso_strainmode_number columns

loop_
_iso_strainmodematrix_row
_iso_strainmodematrix_col
_iso_strainmodematrix_value
    1    1    1.00000
    1    2  -0.50000
    2    1    1.00000
    2    2  -0.50000
    3    1    1.00000
    3    2    1.00000

# end of structure file
# end of cif
