data_isocif-output
_audit_creation_method ISOCIF
 
_cell_length_a    24.74367
_cell_length_b    24.72575
_cell_length_c    24.75072
_cell_angle_alpha 90.00000
_cell_angle_beta  90.00000
_cell_angle_gamma 90.00000
 
_symmetry_space_group_name_H-M "P 21/b 21/c 21/a"
_symmetry_Int_Tables_number 61
_space_group_reference_alt_setting_axes abc   
 
loop_
_space_group_symop_id
_space_group_symop_operation_xyz
1 x,y,z
2 x+1/2,-y+1/2,-z
3 -x,y+1/2,-z+1/2
4 -x+1/2,-y,z+1/2
5 -x,-y,-z
6 -x+1/2,y+1/2,z
7 x,-y+1/2,z+1/2
8 x+1/2,y,-z+1/2
 
loop_
_atom_site_label
_atom_site_type_symbol
_atom_site_symmetry_multiplicity
_atom_site_Wyckoff_label
_atom_site_fract_x
_atom_site_fract_y
_atom_site_fract_z
_atom_site_occupancy
Zr9   Zr   8 c -0.00014  0.16644  0.17423  1.00000
Zr88  Zr   8 c  0.17689  0.50209  0.32989  1.00000
Zr84  Zr   8 c -0.00018  0.33441  0.33849  1.00000
Zr68  Zr   8 c  0.16912  0.33409  0.16626  1.00000
Zr5   Zr   8 c  0.16429  0.00151  0.16789  1.00000
Zr51  Zr   8 c  0.16421  0.16468  0.33909  1.00000
Zr47  Zr   8 c -0.00286  0.15969  0.49880  1.00000
Zr45  Zr   8 c  0.16777 -0.00298  0.50477  1.00000
Zr41  Zr   8 c  0.00163 -0.00187  0.32462  1.00000
Zr1   Zr   4 a  0.00000  0.00000  0.00000  1.00000
Zr13  Zr   8 c  0.15888  0.16650 -0.00391  1.00000
Zr132 Zr   8 c  0.33390  0.32422  0.33993  1.00000
Zr116 Zr   8 c  0.33645  0.15926  0.50171  1.00000
Zr100 Zr   8 c  0.32737  0.16722  0.15819  1.00000
P97   P    8 c  0.36831  0.19668  0.28901  1.00000
P95   P    8 c -0.04292  0.12468  0.37035  1.00000
P91   P    8 c  0.19668 -0.04383  0.37312  1.00000
P85   P    8 c  0.12857  0.03909 -0.04145  1.00000
P78   P    8 c  0.13010  0.37438  0.29284  1.00000
P76   P    8 c  0.19870 -0.02614  0.03432  1.00000
P6    P    8 c  0.02998  0.19957  0.31056  1.00000
P69   P    8 c  0.30094  0.37039  0.21019  1.00000
P65   P    8 c  0.12707  0.46420  0.13352  1.00000
P59   P    8 c  0.03029  0.20885 -0.02985  1.00000
P57   P    8 c  0.29950  0.13357  0.36588  1.00000
P48   P    8 c  0.19752  0.29946  0.36157  1.00000
P42   P    8 c  0.13555  0.13486  0.47506  1.00000
P31   P    8 c  0.03864  0.29610  0.12674  1.00000
P2    P    8 c  0.13175  0.13455  0.13084  1.00000
P29   P    8 c  0.13433  0.03279  0.30377  1.00000
P27   P    8 c  0.28824  0.13385  0.02925  1.00000
P25   P    8 c  0.19687  0.20402  0.20414  1.00000
P14   P    8 c  0.20173  0.53361  0.19840  1.00000
P133  P    8 c -0.03503  0.02982  0.54040  1.00000
P128  P    8 c -0.03372  0.36250  0.20106  1.00000
P123  P    8 c  0.03222 -0.02770  0.13257  1.00000
P119  P    8 c  0.36446  0.20659 -0.02776  1.00000
P113  P    8 c -0.03073  0.13195  0.03927  1.00000
P10   P    8 c  0.20687  0.20563  0.53939  1.00000
P107  P    8 c  0.36347  0.29943  0.13331  1.00000
P105  P    8 c -0.04351  0.03649  0.19989  1.00000
O98   O    8 c  0.36636  0.18473  0.23016  1.00000
O96   O    8 c -0.01910  0.12297  0.42571  1.00000
O94   O    8 c  0.18046  0.89848  0.37765  1.00000
O93   O    8 c  0.19848 -0.01687  0.42810  1.00000
O92   O    8 c  0.24914 -0.03568  0.34257  1.00000
O90   O    8 c  0.12086  0.09812 -0.03366  1.00000
O89   O    8 c  0.07647  0.00929 -0.03183  1.00000
O86   O    8 c  0.14842  0.02650 -0.09692  1.00000
O83   O    8 c  0.25745 -0.01707  0.03478  1.00000
O82   O    8 c  0.07820  0.36213  0.32440  1.00000
O81   O    8 c  0.14603  0.43267  0.29555  1.00000
O80   O    8 c  0.17521 -0.02026  0.08893  1.00000
O7    O    8 c  0.02473  0.19031  0.24985  1.00000
O79   O    8 c  0.12562  0.35789  0.23459  1.00000
O77   O    8 c  0.18434 -0.07968  0.00931  1.00000
O75   O    8 c  0.31136  0.36255  0.26856  1.00000
O74   O    8 c  0.13671  0.49335  0.08148  1.00000
O73   O    8 c  0.24014  0.36867  0.19733  1.00000
O72   O    8 c  0.06825  0.45989  0.14599  1.00000
O70   O    8 c  0.32844  0.42063  0.19007  1.00000
O66   O    8 c  0.15449  0.40908  0.13015  1.00000
O64   O    8 c  0.24586  0.15746  0.35090  1.00000
O63   O    8 c  0.01784  0.17472 -0.08079  1.00000
O62   O    8 c  0.29706  0.07231  0.36752  1.00000
O61   O    8 c  0.00757  0.26497 -0.03634  1.00000
O60   O    8 c  0.08989  0.21034 -0.01735  1.00000
O58   O    8 c  0.32224  0.15751  0.41801  1.00000
O56   O    8 c  0.25744  0.29923  0.35766  1.00000
O55   O    8 c  0.15659  0.07864  0.48639  1.00000
O54   O    8 c  0.17997  0.31606  0.41768  1.00000
O53   O    8 c  0.15468  0.15767  0.42098  1.00000
O49   O    8 c  0.17393  0.24630  0.34679  1.00000
O43   O    8 c  0.07607  0.13791  0.48195  1.00000
O40   O    8 c  0.29016  0.15401  0.08674  1.00000
O3    O    8 c  0.13102  0.14329  0.07102  1.00000
O39   O    8 c  0.02120  0.30644  0.07010  1.00000
O38   O    8 c  0.15676  0.02204  0.24753  1.00000
O37   O    8 c  0.18541  0.26296  0.20700  1.00000
O36   O    8 c  0.15917  0.08215  0.32908  1.00000
O35   O    8 c  0.32266  0.08417  0.02001  1.00000
O34   O    8 c  0.09842  0.30110  0.13391  1.00000
O33   O    8 c  0.17620  0.17404  0.25522  1.00000
O32   O    8 c  0.01998  0.24171  0.14407  1.00000
O30   O    8 c  0.07304  0.03709  0.30329  1.00000
O28   O    8 c  0.23088  0.12452  0.01131  1.00000
O26   O    8 c  0.25604  0.19370  0.19350  1.00000
O24   O    8 c  0.02589  0.25777  0.32290  1.00000
O23   O    8 c  0.20746  0.52925  0.25824  1.00000
O22   O    8 c  0.21192  0.19591  0.59889  1.00000
O21   O    8 c  0.15896  0.08265  0.14706  1.00000
O20   O    8 c  0.25694  0.18460  0.51134  1.00000
O19   O    8 c  0.08161  0.17534  0.33144  1.00000
O18   O    8 c  0.19096  0.59090  0.18197  1.00000
O17   O    8 c  0.07633  0.13850  0.15532  1.00000
O15   O    8 c  0.25226  0.51159  0.17157  1.00000
O136  O    8 c -0.09275  0.02275  0.52291  1.00000
O135  O    8 c -0.01675  0.08720  0.53881  1.00000
O134  O    8 c -0.02806  0.00533  0.59514  1.00000
O131  O    8 c -0.08568  0.34011  0.17834  1.00000
O130  O    8 c -0.02197  0.34354  0.25776  1.00000
O129  O    8 c -0.03217  0.42290  0.19633  1.00000
O127  O    8 c  0.03643 -0.02054  0.07224  1.00000
O126  O    8 c  0.02119 -0.08656  0.14704  1.00000
O124  O    8 c  0.08163 -0.00680  0.16089  1.00000
O122  O    8 c  0.36266  0.26217 -0.00621  1.00000
O121  O    8 c  0.41478  0.17664 -0.00876  1.00000
O120  O    8 c  0.36107  0.20849 -0.08894  1.00000
O11   O    8 c  0.19549  0.26400  0.52585  1.00000
O118  O    8 c -0.00093  0.08130  0.02307  1.00000
O117  O    8 c -0.08536  0.13404  0.01225  1.00000
O114  O    8 c -0.03258  0.13818  0.09971  1.00000
O112  O    8 c  0.42244  0.30877  0.14695  1.00000
O111  O    8 c -0.03000  0.00335  0.24790  1.00000
O110  O    8 c -0.01938  0.09202  0.20578  1.00000
O109  O    8 c  0.34859  0.33231  0.08335  1.00000
O108  O    8 c  0.34968  0.24140  0.12641  1.00000
O106  O    8 c  0.89703  0.03856  0.18938  1.00000
O104  O    8 c  0.33950  0.24896  0.30253  1.00000
O103  O    8 c -0.03093  0.07346  0.34091  1.00000
O102  O    8 c  0.42526  0.19620  0.30847  1.00000
O101  O    8 c  0.89799  0.13489  0.37288  1.00000
O99   S    8 c  0.31113  0.17877 -0.00881  1.00000
O8    S    8 c  0.00211  0.18279  0.01989  1.00000
O87   S    8 c  0.17791  0.34093  0.31697  1.00000
O71   S    8 c  0.01461  0.34189  0.16418  1.00000
O67   S    8 c  0.15164  0.49749  0.18209  1.00000
O52   S    4 b  0.00000  0.00000  0.50000  1.00000
O50   S    8 c  0.14868 -0.01636  0.34138  1.00000
O4    S    8 c  0.16568  0.18306  0.15320  1.00000
O46   S    8 c -0.01958  0.17337  0.33914  1.00000
O44   S    8 c  0.15737  0.17061  0.52107  1.00000
O16   S    8 c -0.01795  0.00764  0.14923  1.00000
O12   S    8 c  0.17315  0.02071 -0.00042  1.00000
O125  S    8 c  0.32833  0.32048  0.18211  1.00000
O115  S    8 c  0.33891  0.14764  0.31772  1.00000
 